29920 29919
  -OEChem-03201516563D

 23 24  0     0  0  0  0  0  0999 V2000
   -0.5863    0.9074   -0.8685 C   0  0  0  0  0  0  0  0  0  0  0  0
    0.5326    1.2773   -0.1304 C   0  0  0  0  0  0  0  0  0  0  0  0
    3.6683    0.5160    3.4359 C   0  0  0  0  0  0  0  0  0  0  0  0
    2.5276    0.1287    2.7414 C   0  0  0  0  0  0  0  0  0  0  0  0
   -1.0687   -0.3821   -0.7128 C   0  0  0  0  0  0  0  0  0  0  0  0
    0.5673   -0.9057    0.8130 C   0  0  0  0  0  0  0  0  0  0  0  0
    4.1976    1.9860    1.6427 C   0  0  0  0  0  0  0  0  0  0  0  0
    1.1264    0.3593    0.7287 C   0  0  0  0  0  0  0  0  0  0  0  0
    4.5244    1.4619    2.8829 C   0  0  0  0  0  0  0  0  0  0  0  0
    2.2900    0.7126    1.5075 C   0  0  0  0  0  0  0  0  0  0  0  0
    5.7230    1.8872    3.5841 C   0  0  0  0  0  0  0  0  0  0  0  0
   -0.5188   -1.3014    0.1119 N   0  0  0  0  0  0  0  0  0  0  0  0
    3.0985    1.6345    0.9382 N   0  0  0  0  0  0  0  0  0  0  0  0
    5.9750    3.0448    3.9388 O   0  0  0  0  0  0  0  0  0  0  0  0
    6.5800    0.8566    3.8267 O   0  0  0  0  0  0  0  0  0  0  0  0
   -1.0662    1.6057   -1.5446 H   0  0  0  0  0  0  0  0  0  0  0  0
    0.9321    2.2829   -0.2361 H   0  0  0  0  0  0  0  0  0  0  0  0
    3.8819    0.0747    4.4057 H   0  0  0  0  0  0  0  0  0  0  0  0
    1.8546   -0.6095    3.1656 H   0  0  0  0  0  0  0  0  0  0  0  0
   -1.9391   -0.7194   -1.2656 H   0  0  0  0  0  0  0  0  0  0  0  0
    0.9847   -1.6688    1.4638 H   0  0  0  0  0  0  0  0  0  0  0  0
    4.8266    2.7282    1.1602 H   0  0  0  0  0  0  0  0  0  0  0  0
    7.3932    1.1336    4.3004 H   0  0  0  0  0  0  0  0  0  0  0  0
  1  2  1  0  0  0  0
  1  5  2  0  0  0  0
  2  8  2  0  0  0  0
  3  4  2  0  0  0  0
  3  9  1  0  0  0  0
  4 10  1  0  0  0  0
  5 12  1  0  0  0  0
  6  8  1  0  0  0  0
  6 12  2  0  0  0  0
  7  9  2  0  0  0  0
  7 13  1  0  0  0  0
  8 10  1  0  0  0  0
  9 11  1  0  0  0  0
 10 13  2  0  0  0  0
 11 14  2  0  0  0  0
 11 15  1  0  0  0  0
  1 16  1  0  0  0  0
  2 17  1  0  0  0  0
  3 18  1  0  0  0  0
  4 19  1  0  0  0  0
  5 20  1  0  0  0  0
  6 21  1  0  0  0  0
  7 22  1  0  0  0  0
 15 23  1  0  0  0  0
M  END
$$$$
29920 29919
  -OEChem-03201516563D

 23 24  0     0  0  0  0  0  0999 V2000
    0.0154    0.0609   -1.3835 C   0  0  0  0  0  0  0  0  0  0  0  0
    1.1513    0.4083   -0.6607 C   0  0  0  0  0  0  0  0  0  0  0  0
    3.6683    0.5160    3.4359 C   0  0  0  0  0  0  0  0  0  0  0  0
    2.5276    0.1287    2.7414 C   0  0  0  0  0  0  0  0  0  0  0  0
   -1.1109   -0.3257   -0.6753 C   0  0  0  0  0  0  0  0  0  0  0  0
   -0.0497   -0.0406    1.3425 C   0  0  0  0  0  0  0  0  0  0  0  0
    4.1976    1.9860    1.6427 C   0  0  0  0  0  0  0  0  0  0  0  0
    1.1264    0.3593    0.7287 C   0  0  0  0  0  0  0  0  0  0  0  0
    4.5244    1.4619    2.8829 C   0  0  0  0  0  0  0  0  0  0  0  0
    2.2900    0.7126    1.5075 C   0  0  0  0  0  0  0  0  0  0  0  0
    5.7230    1.8872    3.5841 C   0  0  0  0  0  0  0  0  0  0  0  0
   -1.1729   -0.3856    0.6739 N   0  0  0  0  0  0  0  0  0  0  0  0
    3.0985    1.6345    0.9382 N   0  0  0  0  0  0  0  0  0  0  0  0
    6.8802    1.7722    3.1634 O   0  0  0  0  0  0  0  0  0  0  0  0
    5.4490    2.4472    4.7952 O   0  0  0  0  0  0  0  0  0  0  0  0
    0.0109    0.0914   -2.4670 H   0  0  0  0  0  0  0  0  0  0  0  0
    2.0490    0.7133   -1.1928 H   0  0  0  0  0  0  0  0  0  0  0  0
    3.8819    0.0747    4.4057 H   0  0  0  0  0  0  0  0  0  0  0  0
    1.8546   -0.6095    3.1656 H   0  0  0  0  0  0  0  0  0  0  0  0
   -2.0225   -0.6060   -1.1925 H   0  0  0  0  0  0  0  0  0  0  0  0
   -0.1335   -0.1018    2.4238 H   0  0  0  0  0  0  0  0  0  0  0  0
    4.8266    2.7282    1.1602 H   0  0  0  0  0  0  0  0  0  0  0  0
    6.2525    2.7382    5.2770 H   0  0  0  0  0  0  0  0  0  0  0  0
  1  2  1  0  0  0  0
  1  5  2  0  0  0  0
  2  8  2  0  0  0  0
  3  4  2  0  0  0  0
  3  9  1  0  0  0  0
  4 10  1  0  0  0  0
  5 12  1  0  0  0  0
  6  8  1  0  0  0  0
  6 12  2  0  0  0  0
  7  9  2  0  0  0  0
  7 13  1  0  0  0  0
  8 10  1  0  0  0  0
  9 11  1  0  0  0  0
 10 13  2  0  0  0  0
 11 14  2  0  0  0  0
 11 15  1  0  0  0  0
  1 16  1  0  0  0  0
  2 17  1  0  0  0  0
  3 18  1  0  0  0  0
  4 19  1  0  0  0  0
  5 20  1  0  0  0  0
  6 21  1  0  0  0  0
  7 22  1  0  0  0  0
 15 23  1  0  0  0  0
M  END
$$$$
29920 29919
  -OEChem-03201516563D

 23 24  0     0  0  0  0  0  0999 V2000
   -0.5571   -1.2200    0.0528 C   0  0  0  0  0  0  0  0  0  0  0  0
    0.5643   -0.9096    0.8142 C   0  0  0  0  0  0  0  0  0  0  0  0
    3.6683    0.5160    3.4359 C   0  0  0  0  0  0  0  0  0  0  0  0
    2.5276    0.1287    2.7414 C   0  0  0  0  0  0  0  0  0  0  0  0
   -1.0742   -0.2339   -0.7718 C   0  0  0  0  0  0  0  0  0  0  0  0
    0.5340    1.2747   -0.1263 C   0  0  0  0  0  0  0  0  0  0  0  0
    4.1976    1.9860    1.6427 C   0  0  0  0  0  0  0  0  0  0  0  0
    1.1264    0.3593    0.7287 C   0  0  0  0  0  0  0  0  0  0  0  0
    4.5244    1.4619    2.8829 C   0  0  0  0  0  0  0  0  0  0  0  0
    2.2900    0.7126    1.5075 C   0  0  0  0  0  0  0  0  0  0  0  0
    5.7230    1.8872    3.5841 C   0  0  0  0  0  0  0  0  0  0  0  0
   -0.5556    1.0098   -0.8814 N   0  0  0  0  0  0  0  0  0  0  0  0
    3.0985    1.6345    0.9382 N   0  0  0  0  0  0  0  0  0  0  0  0
    5.9750    3.0448    3.9388 O   0  0  0  0  0  0  0  0  0  0  0  0
    6.5800    0.8566    3.8267 O   0  0  0  0  0  0  0  0  0  0  0  0
   -1.0127   -2.2022    0.1028 H   0  0  0  0  0  0  0  0  0  0  0  0
    0.9883   -1.6652    1.4710 H   0  0  0  0  0  0  0  0  0  0  0  0
    3.8819    0.0747    4.4057 H   0  0  0  0  0  0  0  0  0  0  0  0
    1.8546   -0.6095    3.1656 H   0  0  0  0  0  0  0  0  0  0  0  0
   -1.9476   -0.4260   -1.3861 H   0  0  0  0  0  0  0  0  0  0  0  0
    0.9235    2.2827   -0.2371 H   0  0  0  0  0  0  0  0  0  0  0  0
    4.8266    2.7282    1.1602 H   0  0  0  0  0  0  0  0  0  0  0  0
    7.3932    1.1336    4.3004 H   0  0  0  0  0  0  0  0  0  0  0  0
  1  2  1  0  0  0  0
  1  5  2  0  0  0  0
  2  8  2  0  0  0  0
  3  4  2  0  0  0  0
  3  9  1  0  0  0  0
  4 10  1  0  0  0  0
  5 12  1  0  0  0  0
  6  8  1  0  0  0  0
  6 12  2  0  0  0  0
  7  9  2  0  0  0  0
  7 13  1  0  0  0  0
  8 10  1  0  0  0  0
  9 11  1  0  0  0  0
 10 13  2  0  0  0  0
 11 14  2  0  0  0  0
 11 15  1  0  0  0  0
  1 16  1  0  0  0  0
  2 17  1  0  0  0  0
  3 18  1  0  0  0  0
  4 19  1  0  0  0  0
  5 20  1  0  0  0  0
  6 21  1  0  0  0  0
  7 22  1  0  0  0  0
 15 23  1  0  0  0  0
M  END
$$$$
29920 29919
  -OEChem-03201516563D

 23 24  0     0  0  0  0  0  0999 V2000
   -1.1588   -0.3735    0.5679 C   0  0  0  0  0  0  0  0  0  0  0  0
   -0.0544   -0.0407    1.3445 C   0  0  0  0  0  0  0  0  0  0  0  0
    3.6683    0.5160    3.4359 C   0  0  0  0  0  0  0  0  0  0  0  0
    2.5276    0.1287    2.7414 C   0  0  0  0  0  0  0  0  0  0  0  0
   -1.0319   -0.2903   -0.8094 C   0  0  0  0  0  0  0  0  0  0  0  0
    1.1511    0.4096   -0.6558 C   0  0  0  0  0  0  0  0  0  0  0  0
    4.1976    1.9860    1.6427 C   0  0  0  0  0  0  0  0  0  0  0  0
    1.1264    0.3593    0.7287 C   0  0  0  0  0  0  0  0  0  0  0  0
    4.5244    1.4619    2.8829 C   0  0  0  0  0  0  0  0  0  0  0  0
    2.2900    0.7126    1.5075 C   0  0  0  0  0  0  0  0  0  0  0  0
    5.7230    1.8872    3.5841 C   0  0  0  0  0  0  0  0  0  0  0  0
    0.0986    0.0940   -1.4434 N   0  0  0  0  0  0  0  0  0  0  0  0
    3.0985    1.6345    0.9382 N   0  0  0  0  0  0  0  0  0  0  0  0
    6.8802    1.7722    3.1634 O   0  0  0  0  0  0  0  0  0  0  0  0
    5.4490    2.4472    4.7952 O   0  0  0  0  0  0  0  0  0  0  0  0
   -2.0898   -0.6880    1.0252 H   0  0  0  0  0  0  0  0  0  0  0  0
   -0.1286   -0.0957    2.4277 H   0  0  0  0  0  0  0  0  0  0  0  0
    3.8819    0.0747    4.4057 H   0  0  0  0  0  0  0  0  0  0  0  0
    1.8546   -0.6095    3.1656 H   0  0  0  0  0  0  0  0  0  0  0  0
   -1.8642   -0.5394   -1.4593 H   0  0  0  0  0  0  0  0  0  0  0  0
    2.0417    0.7157   -1.1971 H   0  0  0  0  0  0  0  0  0  0  0  0
    4.8266    2.7282    1.1602 H   0  0  0  0  0  0  0  0  0  0  0  0
    6.2525    2.7382    5.2770 H   0  0  0  0  0  0  0  0  0  0  0  0
  1  2  1  0  0  0  0
  1  5  2  0  0  0  0
  2  8  2  0  0  0  0
  3  4  2  0  0  0  0
  3  9  1  0  0  0  0
  4 10  1  0  0  0  0
  5 12  1  0  0  0  0
  6  8  1  0  0  0  0
  6 12  2  0  0  0  0
  7  9  2  0  0  0  0
  7 13  1  0  0  0  0
  8 10  1  0  0  0  0
  9 11  1  0  0  0  0
 10 13  2  0  0  0  0
 11 14  2  0  0  0  0
 11 15  1  0  0  0  0
  1 16  1  0  0  0  0
  2 17  1  0  0  0  0
  3 18  1  0  0  0  0
  4 19  1  0  0  0  0
  5 20  1  0  0  0  0
  6 21  1  0  0  0  0
  7 22  1  0  0  0  0
 15 23  1  0  0  0  0
M  END
$$$$
29946 29945
  -OEChem-03201516563D

 21 22  0     0  0  0  0  0  0999 V2000
   -0.5140    1.1652   -2.5106 C   0  0  0  0  0  0  0  0  0  0  0  0
    3.4030    1.0089    3.6187 C   0  0  0  0  0  0  0  0  0  0  0  0
    2.2660    0.6642    2.8965 C   0  0  0  0  0  0  0  0  0  0  0  0
    0.8876    0.9445   -0.5098 C   0  0  0  0  0  0  0  0  0  0  0  0
    4.5302    1.3921    2.9099 C   0  0  0  0  0  0  0  0  0  0  0  0
   -1.0927   -0.3610   -0.6865 C   0  0  0  0  0  0  0  0  0  0  0  0
    3.4674    1.1091    0.8927 C   0  0  0  0  0  0  0  0  0  0  0  0
    0.2135   -0.5746    1.1915 C   0  0  0  0  0  0  0  0  0  0  0  0
   -0.2410    0.5830   -1.2373 C   0  0  0  0  0  0  0  0  0  0  0  0
    2.2905    0.7126    1.5071 C   0  0  0  0  0  0  0  0  0  0  0  0
    1.1264    0.3593    0.7287 C   0  0  0  0  0  0  0  0  0  0  0  0
   -0.7363    1.6388   -3.5465 N   0  0  0  0  0  0  0  0  0  0  0  0
    4.5918    1.4513    1.5607 N   0  0  0  0  0  0  0  0  0  0  0  0
   -0.8938   -0.9512    0.5134 N   0  0  0  0  0  0  0  0  0  0  0  0
    3.4078    0.9788    4.7023 H   0  0  0  0  0  0  0  0  0  0  0  0
    1.3689    0.3579    3.4290 H   0  0  0  0  0  0  0  0  0  0  0  0
    1.5823    1.6810   -0.9096 H   0  0  0  0  0  0  0  0  0  0  0  0
    5.4425    1.6709    3.4267 H   0  0  0  0  0  0  0  0  0  0  0  0
   -1.9909   -0.6861   -1.2038 H   0  0  0  0  0  0  0  0  0  0  0  0
    3.5522    1.1659   -0.1888 H   0  0  0  0  0  0  0  0  0  0  0  0
    0.3433   -1.0686    2.1501 H   0  0  0  0  0  0  0  0  0  0  0  0
  1  9  1  0  0  0  0
  1 12  3  0  0  0  0
  2  3  1  0  0  0  0
  2  5  2  0  0  0  0
  3 10  2  0  0  0  0
  4  9  2  0  0  0  0
  4 11  1  0  0  0  0
  5 13  1  0  0  0  0
  6  9  1  0  0  0  0
  6 14  2  0  0  0  0
  7 10  1  0  0  0  0
  7 13  2  0  0  0  0
  8 11  2  0  0  0  0
  8 14  1  0  0  0  0
 10 11  1  0  0  0  0
  2 15  1  0  0  0  0
  3 16  1  0  0  0  0
  4 17  1  0  0  0  0
  5 18  1  0  0  0  0
  6 19  1  0  0  0  0
  7 20  1  0  0  0  0
  8 21  1  0  0  0  0
M  END
$$$$
29946 29945
  -OEChem-03201516563D

 21 22  0     0  0  0  0  0  0999 V2000
   -0.5140    1.1652   -2.5106 C   0  0  0  0  0  0  0  0  0  0  0  0
    4.5751    1.4472    1.6669 C   0  0  0  0  0  0  0  0  0  0  0  0
    3.4712    1.1119    0.8908 C   0  0  0  0  0  0  0  0  0  0  0  0
    0.8876    0.9445   -0.5098 C   0  0  0  0  0  0  0  0  0  0  0  0
    4.4477    1.3675    3.0443 C   0  0  0  0  0  0  0  0  0  0  0  0
   -1.0927   -0.3610   -0.6865 C   0  0  0  0  0  0  0  0  0  0  0  0
    2.2654    0.6656    2.8916 C   0  0  0  0  0  0  0  0  0  0  0  0
    0.2135   -0.5746    1.1915 C   0  0  0  0  0  0  0  0  0  0  0  0
   -0.2410    0.5830   -1.2373 C   0  0  0  0  0  0  0  0  0  0  0  0
    2.2905    0.7126    1.5071 C   0  0  0  0  0  0  0  0  0  0  0  0
    1.1264    0.3593    0.7287 C   0  0  0  0  0  0  0  0  0  0  0  0
   -0.7363    1.6388   -3.5465 N   0  0  0  0  0  0  0  0  0  0  0  0
    3.3173    0.9839    3.6789 N   0  0  0  0  0  0  0  0  0  0  0  0
   -0.8938   -0.9512    0.5134 N   0  0  0  0  0  0  0  0  0  0  0  0
    5.5061    1.7613    1.2092 H   0  0  0  0  0  0  0  0  0  0  0  0
    3.5445    1.1681   -0.1925 H   0  0  0  0  0  0  0  0  0  0  0  0
    1.5823    1.6810   -0.9096 H   0  0  0  0  0  0  0  0  0  0  0  0
    5.2798    1.6181    3.6939 H   0  0  0  0  0  0  0  0  0  0  0  0
   -1.9909   -0.6861   -1.2038 H   0  0  0  0  0  0  0  0  0  0  0  0
    1.3735    0.3638    3.4334 H   0  0  0  0  0  0  0  0  0  0  0  0
    0.3433   -1.0686    2.1501 H   0  0  0  0  0  0  0  0  0  0  0  0
  1  9  1  0  0  0  0
  1 12  3  0  0  0  0
  2  3  1  0  0  0  0
  2  5  2  0  0  0  0
  3 10  2  0  0  0  0
  4  9  2  0  0  0  0
  4 11  1  0  0  0  0
  5 13  1  0  0  0  0
  6  9  1  0  0  0  0
  6 14  2  0  0  0  0
  7 10  1  0  0  0  0
  7 13  2  0  0  0  0
  8 11  2  0  0  0  0
  8 14  1  0  0  0  0
 10 11  1  0  0  0  0
  2 15  1  0  0  0  0
  3 16  1  0  0  0  0
  4 17  1  0  0  0  0
  5 18  1  0  0  0  0
  6 19  1  0  0  0  0
  7 20  1  0  0  0  0
  8 21  1  0  0  0  0
M  END
$$$$
29946 29945
  -OEChem-03201516563D

 21 22  0     0  0  0  0  0  0999 V2000
   -0.5140    1.1652   -2.5106 C   0  0  0  0  0  0  0  0  0  0  0  0
    3.9730    2.2924    2.1837 C   0  0  0  0  0  0  0  0  0  0  0  0
    2.8530    1.9813    1.4208 C   0  0  0  0  0  0  0  0  0  0  0  0
    0.8876    0.9445   -0.5098 C   0  0  0  0  0  0  0  0  0  0  0  0
    4.4883    1.3075    3.0109 C   0  0  0  0  0  0  0  0  0  0  0  0
   -1.0927   -0.3610   -0.6865 C   0  0  0  0  0  0  0  0  0  0  0  0
    2.8811   -0.2018    2.3644 C   0  0  0  0  0  0  0  0  0  0  0  0
    0.2135   -0.5746    1.1915 C   0  0  0  0  0  0  0  0  0  0  0  0
   -0.2410    0.5830   -1.2373 C   0  0  0  0  0  0  0  0  0  0  0  0
    2.2905    0.7126    1.5071 C   0  0  0  0  0  0  0  0  0  0  0  0
    1.1264    0.3593    0.7287 C   0  0  0  0  0  0  0  0  0  0  0  0
   -0.7363    1.6388   -3.5465 N   0  0  0  0  0  0  0  0  0  0  0  0
    3.9694    0.0640    3.1212 N   0  0  0  0  0  0  0  0  0  0  0  0
   -0.8938   -0.9512    0.5134 N   0  0  0  0  0  0  0  0  0  0  0  0
    4.4289    3.2745    2.1333 H   0  0  0  0  0  0  0  0  0  0  0  0
    2.4279    2.7373    0.7652 H   0  0  0  0  0  0  0  0  0  0  0  0
    1.5823    1.6810   -0.9096 H   0  0  0  0  0  0  0  0  0  0  0  0
    5.3611    1.5000    3.6259 H   0  0  0  0  0  0  0  0  0  0  0  0
   -1.9909   -0.6861   -1.2038 H   0  0  0  0  0  0  0  0  0  0  0  0
    2.4890   -1.2083    2.4787 H   0  0  0  0  0  0  0  0  0  0  0  0
    0.3433   -1.0686    2.1501 H   0  0  0  0  0  0  0  0  0  0  0  0
  1  9  1  0  0  0  0
  1 12  3  0  0  0  0
  2  3  1  0  0  0  0
  2  5  2  0  0  0  0
  3 10  2  0  0  0  0
  4  9  2  0  0  0  0
  4 11  1  0  0  0  0
  5 13  1  0  0  0  0
  6  9  1  0  0  0  0
  6 14  2  0  0  0  0
  7 10  1  0  0  0  0
  7 13  2  0  0  0  0
  8 11  2  0  0  0  0
  8 14  1  0  0  0  0
 10 11  1  0  0  0  0
  2 15  1  0  0  0  0
  3 16  1  0  0  0  0
  4 17  1  0  0  0  0
  5 18  1  0  0  0  0
  6 19  1  0  0  0  0
  7 20  1  0  0  0  0
  8 21  1  0  0  0  0
M  END
$$$$
ZINC39580543
  -OEChem-01281606043D

 29 31  0     1  0  0  0  0  0999 V2000
   -0.0167    1.3781    0.0096 C   0  0  0  0  0  0  0  0  0  0  0  0
    1.1709    2.0855    0.0021 C   0  0  0  0  0  0  0  0  0  0  0  0
    2.3773    1.4107   -0.0130 C   0  0  0  0  0  0  0  0  0  0  0  0
    2.3960    0.0285   -0.0201 C   0  0  0  0  0  0  0  0  0  0  0  0
    1.2084   -0.6789   -0.0117 C   0  0  0  0  0  0  0  0  0  0  0  0
    0.0021   -0.0041    0.0020 C   0  0  0  0  0  0  0  0  0  0  0  0
    3.7112   -0.7071   -0.0376 C   0  0  0  0  0  0  0  0  0  0  0  0
    4.2568   -1.0108    1.6656 S   0  0  0  0  0  0  0  0  0  0  0  0
    5.7857   -1.8662    1.4773 C   0  0  0  0  0  0  0  0  0  0  0  0
    6.3250   -2.1624    0.2912 N   0  3  0  0  0  0  0  0  0  0  0  0
    7.4968   -2.8115    0.2052 C   0  0  0  0  0  0  0  0  0  0  0  0
    8.0911   -3.4768    1.1596 N   0  0  0  0  0  0  0  0  0  0  0  0
    7.4381   -3.6074    2.4620 C   0  0  2  0  0  0  0  0  0  0  0  0
    6.8138   -4.5000    2.5036 H   0  0  0  0  0  0  0  0  0  0  0  0
    6.6084   -2.3254    2.6126 C   0  0  0  0  0  0  0  0  0  0  0  0
    6.8631   -1.8842    3.7853 N   0  0  0  0  0  0  0  0  0  0  0  0
    7.9258   -2.5130    4.3269 C   0  0  0  0  0  0  0  0  0  0  0  0
    8.3471   -3.5412    3.6040 N   0  0  0  0  0  0  0  0  0  0  0  0
    8.1392   -2.7724   -1.0164 N   0  5  0  0  0  0  0  0  0  0  0  0
   -0.9591    1.9053    0.0259 H   0  0  0  0  0  0  0  0  0  0  0  0
    1.1563    3.1654    0.0076 H   0  0  0  0  0  0  0  0  0  0  0  0
    3.3051    1.9634   -0.0196 H   0  0  0  0  0  0  0  0  0  0  0  0
    1.2231   -1.7588   -0.0176 H   0  0  0  0  0  0  0  0  0  0  0  0
   -0.9258   -0.5567    0.0082 H   0  0  0  0  0  0  0  0  0  0  0  0
    3.5884   -1.6586   -0.5549 H   0  0  0  0  0  0  0  0  0  0  0  0
    4.4573   -0.1052   -0.5563 H   0  0  0  0  0  0  0  0  0  0  0  0
    8.3776   -2.2201    5.2631 H   0  0  0  0  0  0  0  0  0  0  0  0
    8.9892   -3.2252   -1.1321 H   0  0  0  0  0  0  0  0  0  0  0  0
    5.8620   -1.9043   -0.5212 H   0  0  0  0  0  0  0  0  0  0  0  0
  1  6  2  0  0  0  0
  1  2  1  0  0  0  0
  1 20  1  0  0  0  0
  2  3  2  0  0  0  0
  2 21  1  0  0  0  0
  3  4  1  0  0  0  0
  3 22  1  0  0  0  0
  4  5  2  0  0  0  0
  4  7  1  0  0  0  0
  5  6  1  0  0  0  0
  5 23  1  0  0  0  0
  6 24  1  0  0  0  0
  7  8  1  0  0  0  0
  7 25  1  0  0  0  0
  7 26  1  0  0  0  0
  8  9  1  0  0  0  0
  9 15  1  0  0  0  0
  9 10  2  0  0  0  0
 10 11  1  0  0  0  0
 10 29  1  0  0  0  0
 11 12  2  0  0  0  0
 11 19  1  0  0  0  0
 12 13  1  0  0  0  0
 13 14  1  0  0  0  0
 13 18  1  0  0  0  0
 13 15  1  0  0  0  0
 15 16  2  0  0  0  0
 16 17  1  0  0  0  0
 17 18  2  0  0  0  0
 17 27  1  0  0  0  0
 19 28  1  0  0  0  0
M  CHG  2  10   1  19  -1
M  END
$$$$
29946 29945
  -OEChem-03201516563D

 21 22  0     0  0  0  0  0  0999 V2000
   -0.5140    1.1652   -2.5106 C   0  0  0  0  0  0  0  0  0  0  0  0
    4.0051    0.1637    3.1020 C   0  0  0  0  0  0  0  0  0  0  0  0
    2.8842   -0.2052    2.3665 C   0  0  0  0  0  0  0  0  0  0  0  0
    0.8876    0.9445   -0.5098 C   0  0  0  0  0  0  0  0  0  0  0  0
    4.4896    1.4521    2.9433 C   0  0  0  0  0  0  0  0  0  0  0  0
   -1.0927   -0.3610   -0.6865 C   0  0  0  0  0  0  0  0  0  0  0  0
    2.8516    1.9764    1.4199 C   0  0  0  0  0  0  0  0  0  0  0  0
    0.2135   -0.5746    1.1915 C   0  0  0  0  0  0  0  0  0  0  0  0
   -0.2410    0.5830   -1.2373 C   0  0  0  0  0  0  0  0  0  0  0  0
    2.2905    0.7126    1.5071 C   0  0  0  0  0  0  0  0  0  0  0  0
    1.1264    0.3593    0.7287 C   0  0  0  0  0  0  0  0  0  0  0  0
   -0.7363    1.6388   -3.5465 N   0  0  0  0  0  0  0  0  0  0  0  0
    3.9397    2.3712    2.1183 N   0  0  0  0  0  0  0  0  0  0  0  0
   -0.8938   -0.9512    0.5134 N   0  0  0  0  0  0  0  0  0  0  0  0
    4.4850   -0.5344    3.7781 H   0  0  0  0  0  0  0  0  0  0  0  0
    2.4855   -1.2112    2.4713 H   0  0  0  0  0  0  0  0  0  0  0  0
    1.5823    1.6810   -0.9096 H   0  0  0  0  0  0  0  0  0  0  0  0
    5.3612    1.7889    3.4947 H   0  0  0  0  0  0  0  0  0  0  0  0
   -1.9909   -0.6861   -1.2038 H   0  0  0  0  0  0  0  0  0  0  0  0
    2.4366    2.7381    0.7659 H   0  0  0  0  0  0  0  0  0  0  0  0
    0.3433   -1.0686    2.1501 H   0  0  0  0  0  0  0  0  0  0  0  0
  1  9  1  0  0  0  0
  1 12  3  0  0  0  0
  2  3  1  0  0  0  0
  2  5  2  0  0  0  0
  3 10  2  0  0  0  0
  4  9  2  0  0  0  0
  4 11  1  0  0  0  0
  5 13  1  0  0  0  0
  6  9  1  0  0  0  0
  6 14  2  0  0  0  0
  7 10  1  0  0  0  0
  7 13  2  0  0  0  0
  8 11  2  0  0  0  0
  8 14  1  0  0  0  0
 10 11  1  0  0  0  0
  2 15  1  0  0  0  0
  3 16  1  0  0  0  0
  4 17  1  0  0  0  0
  5 18  1  0  0  0  0
  6 19  1  0  0  0  0
  7 20  1  0  0  0  0
  8 21  1  0  0  0  0
M  END
$$$$
